@<TRIPOS>MOLECULE
geometry
   28    29     1     0     0
SMALL
bcc


@<TRIPOS>ATOM
      1 C            1.5390     0.0410    -0.0220 ca         1 LIG       0.154400
      2 C1           4.9390     1.2110     0.0230 ca         1 LIG       0.019400
      3 C2           0.7820     1.2250    -0.0180 ca         1 LIG      -0.124500
      4 C3           5.6570     2.4160     0.0140 ca         1 LIG      -0.039000
      5 C4          -0.6140     1.2100    -0.0110 ca         1 LIG      -0.069500
      6 C5           7.0580     2.4540     0.0450 ca         1 LIG      -0.217500
      7 C6          -1.2750    -0.0180    -0.0070 ca         1 LIG      -0.177200
      8 C7           7.7900     1.2730     0.1240 ca         1 LIG       0.193600
      9 C8          -0.5600    -1.2180    -0.0110 ca         1 LIG      -0.069500
     10 C9           7.1040     0.0600     0.0940 ca         1 LIG      -0.217500
     11 C10          0.8340    -1.1720    -0.0180 ca         1 LIG      -0.124500
     12 C11          5.7040     0.0360     0.0620 ca         1 LIG      -0.039000
     13 N            2.8910    -0.0240    -0.0250 ne         1 LIG      -0.232400
     14 N1           3.5850     1.2740    -0.0170 nf         1 LIG      -0.175400
     15 H            1.3120     2.1750    -0.0190 ha         1 LIG       0.160500
     16 H1           5.0920     3.3440    -0.0310 ha         1 LIG       0.149500
     17 H2          -1.1410     2.1560    -0.0070 ha         1 LIG       0.172000
     18 H3           7.5590     3.4130     0.0090 ha         1 LIG       0.138500
     19 N2          -2.7370    -0.0510     0.0020 no         1 LIG       0.313200
     20 O           -3.3030    -1.1590     0.0060 o          1 LIG      -0.209000
     21 O1          -3.3550     1.0280     0.0050 o          1 LIG      -0.209000
     22 H4           9.3760     1.4290    -1.0250 hn         1 LIG       0.409300
     23 H5           9.5800     0.4130     0.2700 hn         1 LIG       0.409300
     24 N3           9.2010     1.3060    -0.0300 nv         1 LIG      -0.836200
     25 H6          -1.0500    -2.1840    -0.0070 ha         1 LIG       0.172000
     26 H7           7.6270    -0.8880     0.0880 ha         1 LIG       0.138500
     27 H8           1.4120    -2.0940    -0.0200 ha         1 LIG       0.160500
     28 H9           5.1810    -0.9170     0.0520 ha         1 LIG       0.149500
@<TRIPOS>BOND
     1    22    24 1   
     2    16     4 1   
     3    24     8 1   
     4    24    23 1   
     5    13     1 1   
     6    13    14 2   
     7     1    11 ar  
     8     1     3 ar  
     9    27    11 1   
    10    15     3 1   
    11    11     9 ar  
    12     3     5 ar  
    13    14     2 1   
    14     5    17 1   
    15     5     7 ar  
    16     9    25 1   
    17     9     7 ar  
    18     7    19 1   
    19    19    21 1   
    20    19    20 1   
    21    18     6 1   
    22     4     2 ar  
    23     4     6 ar  
    24     2    12 ar  
    25     6     8 ar  
    26    28    12 1   
    27    12    10 ar  
    28    26    10 1   
    29    10     8 ar  
@<TRIPOS>SUBSTRUCTURE
     1 LIG         1 TEMP              0 ****  ****    0 ROOT
